Version 4
SHEET 1 2856 3492
WIRE 1312 -80 1200 -80
WIRE 1440 -80 1392 -80
WIRE 1200 16 1200 -80
WIRE 1280 16 1200 16
WIRE 1440 16 1440 -80
WIRE 1440 16 1344 16
WIRE 1792 16 1680 16
WIRE 1920 16 1872 16
WIRE 1200 112 1200 16
WIRE 1200 112 1072 112
WIRE 1264 112 1200 112
WIRE 1440 128 1440 16
WIRE 1440 128 1328 128
WIRE 1520 128 1440 128
WIRE 1680 128 1680 16
WIRE 1680 128 1600 128
WIRE 1728 128 1680 128
WIRE 1072 144 1072 112
WIRE 1264 144 1216 144
WIRE 1920 144 1920 16
WIRE 1920 144 1792 144
WIRE 2000 144 1920 144
WIRE 2080 144 2000 144
WIRE 1728 160 1680 160
WIRE 1216 208 1216 144
WIRE 1680 208 1680 160
WIRE 1376 304 1376 288
WIRE 1488 304 1488 288
WIRE 1376 432 1376 384
WIRE 1488 432 1488 384
FLAG 1488 288 +V
FLAG 1376 288 -V
FLAG 1488 432 0
FLAG 1376 432 0
FLAG 1216 208 0
FLAG 1680 208 0
FLAG 1072 224 0
FLAG 1440 128 V_in
FLAG 2000 144 V_out
FLAG 1296 160 -V
FLAG 1760 176 -V
FLAG 1296 96 +V
FLAG 1760 112 +V
SYMBOL voltage 1376 288 R0
WINDOW 123 0 0 Left 0
WINDOW 39 0 0 Left 0
SYMATTR InstName V1
SYMATTR Value -5
SYMBOL voltage 1488 288 R0
WINDOW 123 0 0 Left 0
WINDOW 39 0 0 Left 0
SYMATTR InstName V2
SYMATTR Value 5
SYMBOL current 1072 224 R180
WINDOW 123 24 52 Left 2
WINDOW 39 0 0 Left 0
WINDOW 3 24 -28 Left 2
SYMATTR Value PULSE(0 100n 1m 0.1m 0.1m 1m 1 1)
SYMATTR InstName I2
SYMBOL res 1408 -96 R90
WINDOW 0 0 56 VBottom 2
WINDOW 3 32 56 VTop 2
SYMATTR InstName R4
SYMATTR Value 5G
SYMBOL res 1888 0 R90
WINDOW 0 0 56 VBottom 2
WINDOW 3 32 56 VTop 2
SYMATTR InstName R5
SYMATTR Value 30k
SYMBOL res 1616 112 R90
WINDOW 0 0 56 VBottom 2
WINDOW 3 32 56 VTop 2
SYMATTR InstName R6
SYMATTR Value 10k
SYMBOL cap 1344 0 R90
WINDOW 0 0 32 VBottom 2
WINDOW 3 32 32 VTop 2
SYMATTR InstName C2
SYMATTR Value 100p
SYMBOL OpAmps\\UniversalOpAmp2 1296 128 R0
SYMATTR InstName U1
SYMBOL OpAmps\\UniversalOpAmp2 1760 144 R0
SYMATTR InstName U2
TEXT 1728 360 Left 2 !.tran 10m startup uic
TEXT 1144 664 Left 2 !.OPTIONS RELTOL=1e-6 ABSTOL=1e-15 CHGTOL=1e-18
